684
C684
C      -24.140000000      0.000000000      0.000000000
C      -24.850000000      1.229756073      0.000000000
C      -26.270000000      1.229756073      0.000000000
C      -26.980000000      0.000000000      0.000000000
C      -26.270000000     -1.229756073      0.000000000
C      -24.850000000     -1.229756073      0.000000000
C      -22.010000000     -3.689268220      0.000000000
C      -22.720000000     -2.459512147      0.000000000
C      -24.140000000     -2.459512147      0.000000000
C      -24.850000000     -3.689268220      0.000000000
C      -24.140000000     -4.919024293      0.000000000
C      -22.720000000     -4.919024293      0.000000000
C      -19.880000000     -7.378536440      0.000000000
C      -20.590000000     -6.148780367      0.000000000
C      -22.010000000     -6.148780367      0.000000000
C      -22.720000000     -7.378536440      0.000000000
C      -22.010000000     -8.608292514      0.000000000
C      -20.590000000     -8.608292514      0.000000000
C      -17.750000000    -11.067804660      0.000000000
C      -18.460000000     -9.838048587      0.000000000
C      -19.880000000     -9.838048587      0.000000000
C      -20.590000000    -11.067804660      0.000000000
C      -19.880000000    -12.297560734      0.000000000
C      -18.460000000    -12.297560734      0.000000000
C      -15.620000000    -14.757072880      0.000000000
C      -16.330000000    -13.527316807      0.000000000
C      -17.750000000    -13.527316807      0.000000000
C      -18.460000000    -14.757072880      0.000000000
C      -17.750000000    -15.986828954      0.000000000
C      -16.330000000    -15.986828954      0.000000000
C      -13.490000000    -18.446341101      0.000000000
C      -14.200000000    -17.216585027      0.000000000
C      -15.620000000    -17.216585027      0.000000000
C      -16.330000000    -18.446341101      0.000000000
C      -15.620000000    -19.676097174      0.000000000
C      -14.200000000    -19.676097174      0.000000000
C      -11.360000000    -22.135609321      0.000000000
C      -12.070000000    -20.905853247      0.000000000
C      -13.490000000    -20.905853247      0.000000000
C      -14.200000000    -22.135609321      0.000000000
C      -13.490000000    -23.365365394      0.000000000
C      -12.070000000    -23.365365394      0.000000000
C      -22.010000000      3.689268220      0.000000000
C      -22.720000000      4.919024293      0.000000000
C      -24.140000000      4.919024293      0.000000000
C      -24.850000000      3.689268220      0.000000000
C      -24.140000000      2.459512147      0.000000000
C      -22.720000000      2.459512147      0.000000000
C      -22.010000000      1.229756073      0.000000000
C      -22.720000000      0.000000000      0.000000000
C      -22.010000000     -1.229756073      0.000000000
C      -17.750000000     -3.689268220      0.000000000
C      -20.590000000     -3.689268220      0.000000000
C      -19.880000000     -4.919024293      0.000000000
C      -18.460000000     -4.919024293      0.000000000
C      -15.620000000     -7.378536440      0.000000000
C      -16.330000000     -6.148780367      0.000000000
C      -17.750000000     -6.148780367      0.000000000
C      -18.460000000     -7.378536440      0.000000000
C      -17.750000000     -8.608292514      0.000000000
C      -16.330000000     -8.608292514      0.000000000
C      -13.490000000    -11.067804660      0.000000000
C      -14.200000000     -9.838048587      0.000000000
C      -15.620000000     -9.838048587      0.000000000
C      -16.330000000    -11.067804660      0.000000000
C      -15.620000000    -12.297560734      0.000000000
C      -14.200000000    -12.297560734      0.000000000
C      -12.070000000    -13.527316807      0.000000000
C      -13.490000000    -13.527316807      0.000000000
C      -14.200000000    -14.757072880      0.000000000
C      -13.490000000    -15.986828954      0.000000000
C      -12.070000000    -18.446341101      0.000000000
C      -11.360000000    -19.676097174      0.000000000
C       -9.940000000    -19.676097174      0.000000000
C       -7.100000000    -22.135609321      0.000000000
C       -7.810000000    -20.905853247      0.000000000
C       -9.230000000    -20.905853247      0.000000000
C       -9.940000000    -22.135609321      0.000000000
C       -9.230000000    -23.365365394      0.000000000
C       -7.810000000    -23.365365394      0.000000000
C      -19.880000000      7.378536440      0.000000000
C      -20.590000000      8.608292514      0.000000000
C      -22.010000000      8.608292514      0.000000000
C      -22.720000000      7.378536440      0.000000000
C      -22.010000000      6.148780367      0.000000000
C      -20.590000000      6.148780367      0.000000000
C      -17.750000000      3.689268220      0.000000000
C      -18.460000000      4.919024293      0.000000000
C      -19.880000000      4.919024293      0.000000000
C      -20.590000000      3.689268220      0.000000000
C      -13.490000000     -3.689268220      0.000000000
C      -14.200000000     -2.459512147      0.000000000
C      -15.620000000     -2.459512147      0.000000000
C      -16.330000000     -3.689268220      0.000000000
C      -15.620000000     -4.919024293      0.000000000
C      -14.200000000     -4.919024293      0.000000000
C      -11.360000000     -7.378536440      0.000000000
C      -12.070000000     -6.148780367      0.000000000
C      -13.490000000     -6.148780367      0.000000000
C      -14.200000000     -7.378536440      0.000000000
C      -13.490000000     -8.608292514      0.000000000
C      -12.070000000     -8.608292514      0.000000000
C       -9.230000000    -11.067804660      0.000000000
C       -9.940000000     -9.838048587      0.000000000
C      -11.360000000     -9.838048587      0.000000000
C      -12.070000000    -11.067804660      0.000000000
C      -11.360000000    -12.297560734      0.000000000
C       -9.940000000    -12.297560734      0.000000000
C       -4.970000000    -18.446341101      0.000000000
C       -5.680000000    -17.216585027      0.000000000
C       -7.100000000    -19.676097174      0.000000000
C       -5.680000000    -19.676097174      0.000000000
C       -2.840000000    -22.135609321      0.000000000
C       -3.550000000    -20.905853247      0.000000000
C       -4.970000000    -20.905853247      0.000000000
C       -5.680000000    -22.135609321      0.000000000
C       -4.970000000    -23.365365394      0.000000000
C       -3.550000000    -23.365365394      0.000000000
C      -17.750000000     11.067804660      0.000000000
C      -18.460000000     12.297560734      0.000000000
C      -19.880000000     12.297560734      0.000000000
C      -20.590000000     11.067804660      0.000000000
C      -19.880000000      9.838048587      0.000000000
C      -18.460000000      9.838048587      0.000000000
C      -15.620000000      7.378536440      0.000000000
C      -16.330000000      8.608292514      0.000000000
C      -17.750000000      8.608292514      0.000000000
C      -18.460000000      7.378536440      0.000000000
C      -17.750000000      6.148780367      0.000000000
C      -16.330000000      6.148780367      0.000000000
C      -13.490000000      3.689268220      0.000000000
C      -14.200000000      4.919024293      0.000000000
C      -15.620000000      4.919024293      0.000000000
C      -16.330000000      3.689268220      0.000000000
C      -15.620000000      2.459512147      0.000000000
C      -14.200000000      2.459512147      0.000000000
C      -11.360000000      0.000000000      0.000000000
C      -12.070000000      1.229756073      0.000000000
C      -13.490000000      1.229756073      0.000000000
C      -14.200000000      0.000000000      0.000000000
C      -13.490000000     -1.229756073      0.000000000
C      -12.070000000     -1.229756073      0.000000000
C       -9.230000000     -3.689268220      0.000000000
C       -9.940000000     -2.459512147      0.000000000
C      -11.360000000     -2.459512147      0.000000000
C      -12.070000000     -3.689268220      0.000000000
C      -11.360000000     -4.919024293      0.000000000
C       -9.940000000     -4.919024293      0.000000000
C       -7.100000000     -7.378536440      0.000000000
C       -7.810000000     -6.148780367      0.000000000
C       -9.230000000     -6.148780367      0.000000000
C       -9.940000000     -7.378536440      0.000000000
C       -9.230000000     -8.608292514      0.000000000
C       -7.810000000     -8.608292514      0.000000000
C       -4.970000000    -11.067804660      0.000000000
C       -5.680000000     -9.838048587      0.000000000
C       -7.100000000     -9.838048587      0.000000000
C       -7.810000000    -11.067804660      0.000000000
C       -7.100000000    -12.297560734      0.000000000
C       -5.680000000    -12.297560734      0.000000000
C       -2.840000000    -14.757072880      0.000000000
C       -3.550000000    -13.527316807      0.000000000
C       -4.970000000    -13.527316807      0.000000000
C       -5.680000000    -14.757072880      0.000000000
C       -4.970000000    -15.986828954      0.000000000
C       -3.550000000    -15.986828954      0.000000000
C       -0.710000000    -18.446341101      0.000000000
C       -1.420000000    -17.216585027      0.000000000
C       -2.840000000    -17.216585027      0.000000000
C       -3.550000000    -18.446341101      0.000000000
C       -2.840000000    -19.676097174      0.000000000
C       -1.420000000    -19.676097174      0.000000000
C        1.420000000    -22.135609321      0.000000000
C        0.710000000    -20.905853247      0.000000000
C       -0.710000000    -20.905853247      0.000000000
C       -1.420000000    -22.135609321      0.000000000
C       -0.710000000    -23.365365394      0.000000000
C        0.710000000    -23.365365394      0.000000000
C      -15.620000000     14.757072880      0.000000000
C      -16.330000000     15.986828954      0.000000000
C      -17.750000000     15.986828954      0.000000000
C      -18.460000000     14.757072880      0.000000000
C      -17.750000000     13.527316807      0.000000000
C      -16.330000000     13.527316807      0.000000000
C      -13.490000000     11.067804660      0.000000000
C      -14.200000000     12.297560734      0.000000000
C      -15.620000000     12.297560734      0.000000000
C      -16.330000000     11.067804660      0.000000000
C      -15.620000000      9.838048587      0.000000000
C      -14.200000000      9.838048587      0.000000000
C      -11.360000000      7.378536440      0.000000000
C      -12.070000000      8.608292514      0.000000000
C      -13.490000000      8.608292514      0.000000000
C      -14.200000000      7.378536440      0.000000000
C      -13.490000000      6.148780367      0.000000000
C      -12.070000000      6.148780367      0.000000000
C       -9.230000000      3.689268220      0.000000000
C       -9.940000000      4.919024293      0.000000000
C      -11.360000000      4.919024293      0.000000000
C      -12.070000000      3.689268220      0.000000000
C      -11.360000000      2.459512147      0.000000000
C       -9.940000000      2.459512147      0.000000000
C       -7.100000000      0.000000000      0.000000000
C       -7.810000000      1.229756073      0.000000000
C       -9.230000000      1.229756073      0.000000000
C       -9.940000000      0.000000000      0.000000000
C       -9.230000000     -1.229756073      0.000000000
C       -7.810000000     -1.229756073      0.000000000
C       -4.970000000     -3.689268220      0.000000000
C       -5.680000000     -2.459512147      0.000000000
C       -7.100000000     -2.459512147      0.000000000
C       -7.810000000     -3.689268220      0.000000000
C       -7.100000000     -4.919024293      0.000000000
C       -5.680000000     -4.919024293      0.000000000
C       -2.840000000     -7.378536440      0.000000000
C       -3.550000000     -6.148780367      0.000000000
C       -4.970000000     -6.148780367      0.000000000
C       -5.680000000     -7.378536440      0.000000000
C       -4.970000000     -8.608292514      0.000000000
C       -3.550000000     -8.608292514      0.000000000
C       -0.710000000    -11.067804660      0.000000000
C       -1.420000000     -9.838048587      0.000000000
C       -2.840000000     -9.838048587      0.000000000
C       -3.550000000    -11.067804660      0.000000000
C       -2.840000000    -12.297560734      0.000000000
C       -1.420000000    -12.297560734      0.000000000
C        1.420000000    -14.757072880      0.000000000
C        0.710000000    -13.527316807      0.000000000
C       -0.710000000    -13.527316807      0.000000000
C       -1.420000000    -14.757072880      0.000000000
C       -0.710000000    -15.986828954      0.000000000
C        0.710000000    -15.986828954      0.000000000
C        3.550000000    -18.446341101      0.000000000
C        2.840000000    -17.216585027      0.000000000
C        1.420000000    -17.216585027      0.000000000
C        0.710000000    -18.446341101      0.000000000
C        1.420000000    -19.676097174      0.000000000
C        2.840000000    -19.676097174      0.000000000
C        5.680000000    -22.135609321      0.000000000
C        4.970000000    -20.905853247      0.000000000
C        3.550000000    -20.905853247      0.000000000
C        2.840000000    -22.135609321      0.000000000
C        3.550000000    -23.365365394      0.000000000
C        4.970000000    -23.365365394      0.000000000
C      -13.490000000     18.446341101      0.000000000
C      -14.200000000     19.676097174      0.000000000
C      -15.620000000     19.676097174      0.000000000
C      -16.330000000     18.446341101      0.000000000
C      -15.620000000     17.216585027      0.000000000
C      -14.200000000     17.216585027      0.000000000
C      -13.490000000     15.986828954      0.000000000
C      -14.200000000     14.757072880      0.000000000
C      -13.490000000     13.527316807      0.000000000
C      -12.070000000     13.527316807      0.000000000
C       -9.230000000     11.067804660      0.000000000
C       -9.940000000     12.297560734      0.000000000
C      -11.360000000     12.297560734      0.000000000
C      -12.070000000     11.067804660      0.000000000
C      -11.360000000      9.838048587      0.000000000
C       -9.940000000      9.838048587      0.000000000
C       -7.100000000      7.378536440      0.000000000
C       -7.810000000      8.608292514      0.000000000
C       -9.230000000      8.608292514      0.000000000
C       -9.940000000      7.378536440      0.000000000
C       -9.230000000      6.148780367      0.000000000
C       -7.810000000      6.148780367      0.000000000
C       -4.970000000      3.689268220      0.000000000
C       -5.680000000      4.919024293      0.000000000
C       -7.100000000      4.919024293      0.000000000
C       -7.810000000      3.689268220      0.000000000
C       -7.100000000      2.459512147      0.000000000
C       -5.680000000      2.459512147      0.000000000
C       -2.840000000      0.000000000      0.000000000
C       -3.550000000      1.229756073      0.000000000
C       -4.970000000      1.229756073      0.000000000
C       -5.680000000      0.000000000      0.000000000
C       -4.970000000     -1.229756073      0.000000000
C       -3.550000000     -1.229756073      0.000000000
C       -0.710000000     -3.689268220      0.000000000
C       -1.420000000     -2.459512147      0.000000000
C       -2.840000000     -2.459512147      0.000000000
C       -3.550000000     -3.689268220      0.000000000
C       -2.840000000     -4.919024293      0.000000000
C       -1.420000000     -4.919024293      0.000000000
C        1.420000000     -7.378536440      0.000000000
C        0.710000000     -6.148780367      0.000000000
C       -0.710000000     -6.148780367      0.000000000
C       -1.420000000     -7.378536440      0.000000000
C       -0.710000000     -8.608292514      0.000000000
C        0.710000000     -8.608292514      0.000000000
C        3.550000000    -11.067804660      0.000000000
C        2.840000000     -9.838048587      0.000000000
C        1.420000000     -9.838048587      0.000000000
C        0.710000000    -11.067804660      0.000000000
C        1.420000000    -12.297560734      0.000000000
C        2.840000000    -12.297560734      0.000000000
C        5.680000000    -14.757072880      0.000000000
C        4.970000000    -13.527316807      0.000000000
C        3.550000000    -13.527316807      0.000000000
C        2.840000000    -14.757072880      0.000000000
C        3.550000000    -15.986828954      0.000000000
C        4.970000000    -15.986828954      0.000000000
C        5.680000000    -17.216585027      0.000000000
C        4.970000000    -18.446341101      0.000000000
C        5.680000000    -19.676097174      0.000000000
C        7.100000000    -19.676097174      0.000000000
C        9.940000000    -22.135609321      0.000000000
C        9.230000000    -20.905853247      0.000000000
C        7.810000000    -20.905853247      0.000000000
C        7.100000000    -22.135609321      0.000000000
C        7.810000000    -23.365365394      0.000000000
C        9.230000000    -23.365365394      0.000000000
C      -11.360000000     22.135609321      0.000000000
C      -12.070000000     23.365365394      0.000000000
C      -13.490000000     23.365365394      0.000000000
C      -14.200000000     22.135609321      0.000000000
C      -13.490000000     20.905853247      0.000000000
C      -12.070000000     20.905853247      0.000000000
C       -9.940000000     19.676097174      0.000000000
C      -11.360000000     19.676097174      0.000000000
C      -12.070000000     18.446341101      0.000000000
C       -4.970000000     11.067804660      0.000000000
C       -5.680000000     12.297560734      0.000000000
C       -7.100000000     12.297560734      0.000000000
C       -7.810000000     11.067804660      0.000000000
C       -7.100000000      9.838048587      0.000000000
C       -5.680000000      9.838048587      0.000000000
C       -2.840000000      7.378536440      0.000000000
C       -3.550000000      8.608292514      0.000000000
C       -4.970000000      8.608292514      0.000000000
C       -5.680000000      7.378536440      0.000000000
C       -4.970000000      6.148780367      0.000000000
C       -3.550000000      6.148780367      0.000000000
C       -0.710000000      3.689268220      0.000000000
C       -1.420000000      4.919024293      0.000000000
C       -2.840000000      4.919024293      0.000000000
C       -3.550000000      3.689268220      0.000000000
C       -2.840000000      2.459512147      0.000000000
C       -1.420000000      2.459512147      0.000000000
C        1.420000000      0.000000000      0.000000000
C        0.710000000      1.229756073      0.000000000
C       -0.710000000      1.229756073      0.000000000
C       -1.420000000      0.000000000      0.000000000
C       -0.710000000     -1.229756073      0.000000000
C        0.710000000     -1.229756073      0.000000000
C        3.550000000     -3.689268220      0.000000000
C        2.840000000     -2.459512147      0.000000000
C        1.420000000     -2.459512147      0.000000000
C        0.710000000     -3.689268220      0.000000000
C        1.420000000     -4.919024293      0.000000000
C        2.840000000     -4.919024293      0.000000000
C        5.680000000     -7.378536440      0.000000000
C        4.970000000     -6.148780367      0.000000000
C        3.550000000     -6.148780367      0.000000000
C        2.840000000     -7.378536440      0.000000000
C        3.550000000     -8.608292514      0.000000000
C        4.970000000     -8.608292514      0.000000000
C        7.810000000    -11.067804660      0.000000000
C        7.100000000     -9.838048587      0.000000000
C        5.680000000     -9.838048587      0.000000000
C        4.970000000    -11.067804660      0.000000000
C        5.680000000    -12.297560734      0.000000000
C        7.100000000    -12.297560734      0.000000000
C       12.070000000    -18.446341101      0.000000000
C        9.940000000    -19.676097174      0.000000000
C       11.360000000    -19.676097174      0.000000000
C       14.200000000    -22.135609321      0.000000000
C       13.490000000    -20.905853247      0.000000000
C       12.070000000    -20.905853247      0.000000000
C       11.360000000    -22.135609321      0.000000000
C       12.070000000    -23.365365394      0.000000000
C       13.490000000    -23.365365394      0.000000000
C       -7.100000000     22.135609321      0.000000000
C       -7.810000000     23.365365394      0.000000000
C       -9.230000000     23.365365394      0.000000000
C       -9.940000000     22.135609321      0.000000000
C       -9.230000000     20.905853247      0.000000000
C       -7.810000000     20.905853247      0.000000000
C       -4.970000000     18.446341101      0.000000000
C       -5.680000000     19.676097174      0.000000000
C       -7.100000000     19.676097174      0.000000000
C       -5.680000000     17.216585027      0.000000000
C       -2.840000000     14.757072880      0.000000000
C       -3.550000000     15.986828954      0.000000000
C       -4.970000000     15.986828954      0.000000000
C       -5.680000000     14.757072880      0.000000000
C       -4.970000000     13.527316807      0.000000000
C       -3.550000000     13.527316807      0.000000000
C       -0.710000000     11.067804660      0.000000000
C       -1.420000000     12.297560734      0.000000000
C       -2.840000000     12.297560734      0.000000000
C       -3.550000000     11.067804660      0.000000000
C       -2.840000000      9.838048587      0.000000000
C       -1.420000000      9.838048587      0.000000000
C        1.420000000      7.378536440      0.000000000
C        0.710000000      8.608292514      0.000000000
C       -0.710000000      8.608292514      0.000000000
C       -1.420000000      7.378536440      0.000000000
C       -0.710000000      6.148780367      0.000000000
C        0.710000000      6.148780367      0.000000000
C        3.550000000      3.689268220      0.000000000
C        2.840000000      4.919024293      0.000000000
C        1.420000000      4.919024293      0.000000000
C        0.710000000      3.689268220      0.000000000
C        1.420000000      2.459512147      0.000000000
C        2.840000000      2.459512147      0.000000000
C        5.680000000      0.000000000      0.000000000
C        4.970000000      1.229756073      0.000000000
C        3.550000000      1.229756073      0.000000000
C        2.840000000      0.000000000      0.000000000
C        3.550000000     -1.229756073      0.000000000
C        4.970000000     -1.229756073      0.000000000
C        7.810000000     -3.689268220      0.000000000
C        7.100000000     -2.459512147      0.000000000
C        5.680000000     -2.459512147      0.000000000
C        4.970000000     -3.689268220      0.000000000
C        5.680000000     -4.919024293      0.000000000
C        7.100000000     -4.919024293      0.000000000
C        9.940000000     -7.378536440      0.000000000
C        9.230000000     -6.148780367      0.000000000
C        7.810000000     -6.148780367      0.000000000
C        7.100000000     -7.378536440      0.000000000
C        7.810000000     -8.608292514      0.000000000
C        9.230000000     -8.608292514      0.000000000
C       12.070000000    -11.067804660      0.000000000
C       11.360000000     -9.838048587      0.000000000
C        9.940000000     -9.838048587      0.000000000
C        9.230000000    -11.067804660      0.000000000
C        9.940000000    -12.297560734      0.000000000
C       11.360000000    -12.297560734      0.000000000
C       14.200000000    -14.757072880      0.000000000
C       13.490000000    -13.527316807      0.000000000
C       12.070000000    -13.527316807      0.000000000
C       13.490000000    -15.986828954      0.000000000
C       16.330000000    -18.446341101      0.000000000
C       15.620000000    -17.216585027      0.000000000
C       14.200000000    -17.216585027      0.000000000
C       13.490000000    -18.446341101      0.000000000
C       14.200000000    -19.676097174      0.000000000
C       15.620000000    -19.676097174      0.000000000
C       -2.840000000     22.135609321      0.000000000
C       -3.550000000     23.365365394      0.000000000
C       -4.970000000     23.365365394      0.000000000
C       -5.680000000     22.135609321      0.000000000
C       -4.970000000     20.905853247      0.000000000
C       -3.550000000     20.905853247      0.000000000
C       -0.710000000     18.446341101      0.000000000
C       -1.420000000     19.676097174      0.000000000
C       -2.840000000     19.676097174      0.000000000
C       -3.550000000     18.446341101      0.000000000
C       -2.840000000     17.216585027      0.000000000
C       -1.420000000     17.216585027      0.000000000
C        1.420000000     14.757072880      0.000000000
C        0.710000000     15.986828954      0.000000000
C       -0.710000000     15.986828954      0.000000000
C       -1.420000000     14.757072880      0.000000000
C       -0.710000000     13.527316807      0.000000000
C        0.710000000     13.527316807      0.000000000
C        3.550000000     11.067804660      0.000000000
C        2.840000000     12.297560734      0.000000000
C        1.420000000     12.297560734      0.000000000
C        0.710000000     11.067804660      0.000000000
C        1.420000000      9.838048587      0.000000000
C        2.840000000      9.838048587      0.000000000
C        5.680000000      7.378536440      0.000000000
C        4.970000000      8.608292514      0.000000000
C        3.550000000      8.608292514      0.000000000
C        2.840000000      7.378536440      0.000000000
C        3.550000000      6.148780367      0.000000000
C        4.970000000      6.148780367      0.000000000
C        7.810000000      3.689268220      0.000000000
C        7.100000000      4.919024293      0.000000000
C        5.680000000      4.919024293      0.000000000
C        4.970000000      3.689268220      0.000000000
C        5.680000000      2.459512147      0.000000000
C        7.100000000      2.459512147      0.000000000
C        9.940000000      0.000000000      0.000000000
C        9.230000000      1.229756073      0.000000000
C        7.810000000      1.229756073      0.000000000
C        7.100000000      0.000000000      0.000000000
C        7.810000000     -1.229756073      0.000000000
C        9.230000000     -1.229756073      0.000000000
C       12.070000000     -3.689268220      0.000000000
C       11.360000000     -2.459512147      0.000000000
C        9.940000000     -2.459512147      0.000000000
C        9.230000000     -3.689268220      0.000000000
C        9.940000000     -4.919024293      0.000000000
C       11.360000000     -4.919024293      0.000000000
C       14.200000000     -7.378536440      0.000000000
C       13.490000000     -6.148780367      0.000000000
C       12.070000000     -6.148780367      0.000000000
C       11.360000000     -7.378536440      0.000000000
C       12.070000000     -8.608292514      0.000000000
C       13.490000000     -8.608292514      0.000000000
C       16.330000000    -11.067804660      0.000000000
C       15.620000000     -9.838048587      0.000000000
C       14.200000000     -9.838048587      0.000000000
C       13.490000000    -11.067804660      0.000000000
C       14.200000000    -12.297560734      0.000000000
C       15.620000000    -12.297560734      0.000000000
C       18.460000000    -14.757072880      0.000000000
C       17.750000000    -13.527316807      0.000000000
C       16.330000000    -13.527316807      0.000000000
C       15.620000000    -14.757072880      0.000000000
C       16.330000000    -15.986828954      0.000000000
C       17.750000000    -15.986828954      0.000000000
C        1.420000000     22.135609321      0.000000000
C        0.710000000     23.365365394      0.000000000
C       -0.710000000     23.365365394      0.000000000
C       -1.420000000     22.135609321      0.000000000
C       -0.710000000     20.905853247      0.000000000
C        0.710000000     20.905853247      0.000000000
C        3.550000000     18.446341101      0.000000000
C        2.840000000     19.676097174      0.000000000
C        1.420000000     19.676097174      0.000000000
C        0.710000000     18.446341101      0.000000000
C        1.420000000     17.216585027      0.000000000
C        2.840000000     17.216585027      0.000000000
C        5.680000000     14.757072880      0.000000000
C        4.970000000     15.986828954      0.000000000
C        3.550000000     15.986828954      0.000000000
C        2.840000000     14.757072880      0.000000000
C        3.550000000     13.527316807      0.000000000
C        4.970000000     13.527316807      0.000000000
C        7.810000000     11.067804660      0.000000000
C        7.100000000     12.297560734      0.000000000
C        5.680000000     12.297560734      0.000000000
C        4.970000000     11.067804660      0.000000000
C        5.680000000      9.838048587      0.000000000
C        7.100000000      9.838048587      0.000000000
C        9.940000000      7.378536440      0.000000000
C        9.230000000      8.608292514      0.000000000
C        7.810000000      8.608292514      0.000000000
C        7.100000000      7.378536440      0.000000000
C        7.810000000      6.148780367      0.000000000
C        9.230000000      6.148780367      0.000000000
C       12.070000000      3.689268220      0.000000000
C       11.360000000      4.919024293      0.000000000
C        9.940000000      4.919024293      0.000000000
C        9.230000000      3.689268220      0.000000000
C        9.940000000      2.459512147      0.000000000
C       11.360000000      2.459512147      0.000000000
C       14.200000000      0.000000000      0.000000000
C       13.490000000      1.229756073      0.000000000
C       12.070000000      1.229756073      0.000000000
C       11.360000000      0.000000000      0.000000000
C       12.070000000     -1.229756073      0.000000000
C       13.490000000     -1.229756073      0.000000000
C       16.330000000     -3.689268220      0.000000000
C       15.620000000     -2.459512147      0.000000000
C       14.200000000     -2.459512147      0.000000000
C       13.490000000     -3.689268220      0.000000000
C       14.200000000     -4.919024293      0.000000000
C       15.620000000     -4.919024293      0.000000000
C       18.460000000     -7.378536440      0.000000000
C       17.750000000     -6.148780367      0.000000000
C       16.330000000     -6.148780367      0.000000000
C       15.620000000     -7.378536440      0.000000000
C       16.330000000     -8.608292514      0.000000000
C       17.750000000     -8.608292514      0.000000000
C       20.590000000    -11.067804660      0.000000000
C       19.880000000     -9.838048587      0.000000000
C       18.460000000     -9.838048587      0.000000000
C       17.750000000    -11.067804660      0.000000000
C       18.460000000    -12.297560734      0.000000000
C       19.880000000    -12.297560734      0.000000000
C        5.680000000     22.135609321      0.000000000
C        4.970000000     23.365365394      0.000000000
C        3.550000000     23.365365394      0.000000000
C        2.840000000     22.135609321      0.000000000
C        3.550000000     20.905853247      0.000000000
C        4.970000000     20.905853247      0.000000000
C        7.100000000     19.676097174      0.000000000
C        5.680000000     19.676097174      0.000000000
C        4.970000000     18.446341101      0.000000000
C        5.680000000     17.216585027      0.000000000
C       12.070000000     11.067804660      0.000000000
C       11.360000000     12.297560734      0.000000000
C        9.940000000     12.297560734      0.000000000
C        9.230000000     11.067804660      0.000000000
C        9.940000000      9.838048587      0.000000000
C       11.360000000      9.838048587      0.000000000
C       14.200000000      7.378536440      0.000000000
C       13.490000000      8.608292514      0.000000000
C       12.070000000      8.608292514      0.000000000
C       11.360000000      7.378536440      0.000000000
C       12.070000000      6.148780367      0.000000000
C       13.490000000      6.148780367      0.000000000
C       16.330000000      3.689268220      0.000000000
C       15.620000000      4.919024293      0.000000000
C       14.200000000      4.919024293      0.000000000
C       13.490000000      3.689268220      0.000000000
C       14.200000000      2.459512147      0.000000000
C       15.620000000      2.459512147      0.000000000
C       20.590000000     -3.689268220      0.000000000
C       17.750000000     -3.689268220      0.000000000
C       18.460000000     -4.919024293      0.000000000
C       19.880000000     -4.919024293      0.000000000
C       22.720000000     -7.378536440      0.000000000
C       22.010000000     -6.148780367      0.000000000
C       20.590000000     -6.148780367      0.000000000
C       19.880000000     -7.378536440      0.000000000
C       20.590000000     -8.608292514      0.000000000
C       22.010000000     -8.608292514      0.000000000
C        9.940000000     22.135609321      0.000000000
C        9.230000000     23.365365394      0.000000000
C        7.810000000     23.365365394      0.000000000
C        7.100000000     22.135609321      0.000000000
C        7.810000000     20.905853247      0.000000000
C        9.230000000     20.905853247      0.000000000
C       12.070000000     18.446341101      0.000000000
C       11.360000000     19.676097174      0.000000000
C        9.940000000     19.676097174      0.000000000
C       14.200000000     14.757072880      0.000000000
C       13.490000000     15.986828954      0.000000000
C       12.070000000     13.527316807      0.000000000
C       13.490000000     13.527316807      0.000000000
C       16.330000000     11.067804660      0.000000000
C       15.620000000     12.297560734      0.000000000
C       14.200000000     12.297560734      0.000000000
C       13.490000000     11.067804660      0.000000000
C       14.200000000      9.838048587      0.000000000
C       15.620000000      9.838048587      0.000000000
C       18.460000000      7.378536440      0.000000000
C       17.750000000      8.608292514      0.000000000
C       16.330000000      8.608292514      0.000000000
C       15.620000000      7.378536440      0.000000000
C       16.330000000      6.148780367      0.000000000
C       17.750000000      6.148780367      0.000000000
C       20.590000000      3.689268220      0.000000000
C       19.880000000      4.919024293      0.000000000
C       18.460000000      4.919024293      0.000000000
C       17.750000000      3.689268220      0.000000000
C       22.720000000      0.000000000      0.000000000
C       22.010000000      1.229756073      0.000000000
C       22.010000000     -1.229756073      0.000000000
C       24.850000000     -3.689268220      0.000000000
C       24.140000000     -2.459512147      0.000000000
C       22.720000000     -2.459512147      0.000000000
C       22.010000000     -3.689268220      0.000000000
C       22.720000000     -4.919024293      0.000000000
C       24.140000000     -4.919024293      0.000000000
C       14.200000000     22.135609321      0.000000000
C       13.490000000     23.365365394      0.000000000
C       12.070000000     23.365365394      0.000000000
C       11.360000000     22.135609321      0.000000000
C       12.070000000     20.905853247      0.000000000
C       13.490000000     20.905853247      0.000000000
C       16.330000000     18.446341101      0.000000000
C       15.620000000     19.676097174      0.000000000
C       14.200000000     19.676097174      0.000000000
C       13.490000000     18.446341101      0.000000000
C       14.200000000     17.216585027      0.000000000
C       15.620000000     17.216585027      0.000000000
C       18.460000000     14.757072880      0.000000000
C       17.750000000     15.986828954      0.000000000
C       16.330000000     15.986828954      0.000000000
C       15.620000000     14.757072880      0.000000000
C       16.330000000     13.527316807      0.000000000
C       17.750000000     13.527316807      0.000000000
C       20.590000000     11.067804660      0.000000000
C       19.880000000     12.297560734      0.000000000
C       18.460000000     12.297560734      0.000000000
C       17.750000000     11.067804660      0.000000000
C       18.460000000      9.838048587      0.000000000
C       19.880000000      9.838048587      0.000000000
C       22.720000000      7.378536440      0.000000000
C       22.010000000      8.608292514      0.000000000
C       20.590000000      8.608292514      0.000000000
C       19.880000000      7.378536440      0.000000000
C       20.590000000      6.148780367      0.000000000
C       22.010000000      6.148780367      0.000000000
C       24.850000000      3.689268220      0.000000000
C       24.140000000      4.919024293      0.000000000
C       22.720000000      4.919024293      0.000000000
C       22.010000000      3.689268220      0.000000000
C       22.720000000      2.459512147      0.000000000
C       24.140000000      2.459512147      0.000000000
C       26.980000000      0.000000000      0.000000000
C       26.270000000      1.229756073      0.000000000
C       24.850000000      1.229756073      0.000000000
C       24.140000000      0.000000000      0.000000000
C       24.850000000     -1.229756073      0.000000000
C       26.270000000     -1.229756073      0.000000000
